*SPEF "IEEE 1481-1998"
*DESIGN "vsdPLLSoC"
*DATE "Sun Feb 21 17:02:33 2021"
*VENDOR "AUC CSCE Department"
*PROGRAM "SPEF Extractor"
*VERSION "1.0"
*DESIGN_FLOW "PIN_CAP NONE"
*DIVIDER /
*DELIMITER :
*BUS_DELIMITER []
*T_UNIT 1.00000 NS
*C_UNIT 1.00000 PF
*R_UNIT 1.00000 OHM
*L_UNIT 1.00000 HENRY


*NAME_MAP
*0 clk_pll
*1 en_cp_pll
*2 en_vco_pll
*3 porb
*4 ref_clk_pll
*5 vco_in_pll

*D_NET *0 0.30346601226904
*CONN
*I PLL:CLK O
*I PADFRAME:CLK_pll I
*CAP
0 *0:1 0.004323081378880001
1 *0:3 0.0033536079722400005
2 *0:5 0.0014350407568000001
3 *0:7 0.00232084498705
4 *0:10 0.00221524676221
5 *0:11 0.0048925541776
6 *0:13 0.00245399350144
7 *0:15 0.0011345240944600002
8 *0:17 0.015717075291300002
9 *0:19 0.0034159772903700003
10 *0:21 0.0006621848156799999
11 *0:23 0.0011345240944600002
12 *0:25 0.00159774727072
13 *0:27 0.11862440740768002
14 *0:29 0.00078421470112
15 *0:31 0.0008175121119200001
16 *0:33 0.0022892499548800003
17 *0:35 0.0012316576144
18 *0:37 0.0012316576144
19 *0:39 0.0012316576144
20 *0:41 0.00011143996899000002
21 *0:43 0.0012723342428800001
22 *0:45 0.0020279214998
23 *0:47 0.00119098098592
24 *0:49 0.02246078473806
25 *0:51 0.0014350407568000001
26 *0:53 0.0038435355816200003
27 *0:55 0.013325075786680001
28 *0:57 0.010414329401539999
29 *0:59 0.0012723342428800001
30 *0:61 0.00525567986748
31 *0:63 0.00119098098592
32 *0:65 0.00715775176272
33 *0:67 0.007878233541220001
34 *0:69 0.010039678876719998
35 *0:71 0.00302142926752
36 *0:73 0.01459312371684
37 *0:76 0.012402859110199999
38 *0:77 0.00012742124399999999
39 *0:78 0.0040935622312400005
40 *0:80 0.009484755047999999
41 *0:2 0
42 *0:26 0
43 *0:6 0
44 *0:34 0
45 *0:14 0
46 *0:22 0
47 *0:28 0
48 *0:30 0
49 *0:36 0
50 *0:38 0
51 *0:40 0
52 *0:44 0
53 *0:48 0
54 *0:52 0
55 *0:60 0
56 *0:64 0
57 *0:72 0
58 *0:79 0
*RES
0 *0:1 *0:2 45.42857142857142
1 *0:3 *0:4 38.32142857142857
2 *0:5 *0:6 15.0
3 *0:7 *0:8 25.93303571428571
4 *0:7 *0:9 0.4285714285714285
5 *0:10 *0:9 25.272321428571427
6 *0:11 *0:12 51.42857142857142
7 *0:13 *0:12 0.33035714285714285
8 *0:13 *0:14 25.285714285714285
9 *0:15 *0:16 12.88392857142857
10 *0:17 *0:18 180.04464285714283
11 *0:19 *0:20 38.48660714285714
12 *0:21 *0:22 6.857142857142856
13 *0:23 *0:24 12.88392857142857
14 *0:25 *0:26 16.71428571428571
15 *0:27 *0:28 1249.7142857142856
16 *0:29 *0:30 8.14285714285714
17 *0:31 *0:32 9.249999999999998
18 *0:33 *0:34 23.999999999999996
19 *0:35 *0:36 12.857142857142856
20 *0:37 *0:38 12.857142857142856
21 *0:39 *0:40 12.857142857142856
22 *0:41 *0:42 1.1562499999999998
23 *0:43 *0:44 13.285714285714285
24 *0:45 *0:46 23.124999999999996
25 *0:47 *0:48 12.428571428571427
26 *0:49 *0:50 257.3482142857143
27 *0:51 *0:52 15.0
28 *0:53 *0:54 43.9375
29 *0:55 *0:56 152.62499999999997
30 *0:57 *0:58 119.25892857142856
31 *0:59 *0:60 13.285714285714285
32 *0:61 *0:62 60.125
33 *0:63 *0:64 12.428571428571427
34 *0:65 *0:66 81.92857142857143
35 *0:67 *0:68 90.1875
36 *0:69 *0:70 114.9642857142857
37 *0:71 *0:72 31.714285714285715
38 *0:73 *0:74 167.16071428571428
39 *0:19 *0:75 0.4285714285714285
40 *0:76 *0:75 142.05357142857142
41 *0:77 PADFRAME:CLK_pll 0.188
42 *0:78 *0:79 46.80357142857142
43 *0:80 *0:81 17.296000000000003
44 *0:1 *0:17 0
45 *0:2 *0:16 0
46 *0:26 *0:4 0
47 *0:5 *0:3 0
48 *0:6 *0:18 0
49 *0:34 *0:8 0
50 *0:11 *0:10 0
51 *0:14 *0:20 0
52 *0:71 *0:15 0
53 *0:27 *0:42 0
54 *0:21 *0:49 0
55 *0:22 *0:24 0
56 *0:25 *0:23 0
57 *0:28 *0:54 0
58 *0:29 *0:57 0
59 *0:30 *0:32 0
60 *0:33 *0:31 0
61 *0:35 *0:67 0
62 *0:36 *0:58 0
63 *0:37 *0:69 0
64 *0:38 *0:66 0
65 *0:39 *0:73 0
66 *0:40 *0:70 0
67 *0:76 *0:81 0
68 *0:43 *0:55 0
69 *0:44 *0:46 0
70 *0:47 *0:45 0
71 *0:48 *0:50 0
72 *0:51 *0:53 0
73 *0:52 *0:56 0
74 *0:59 *0:65 0
75 *0:60 *0:62 0
76 *0:63 *0:61 0
77 *0:64 *0:68 0
78 *0:72 *0:74 0
79 *0:78 *0:77 0
80 *0:79 *0:80 0
*END

*D_NET *1 0.24821866668960996
*CONN
*I PLL:ENb_CP I
*I PADFRAME:EN_CP_pll O
*CAP
59 *1:1 0.00016907851127000002
60 *1:2 0.0004153392071999999
61 *1:4 0.11933797639749999
62 *1:6 0.0011443033386
63 *1:9 0.00021482491139999997
64 *1:10 4.51589688e-05
65 *1:11 0.00018348814684000003
66 *1:13 0.12670849720799998
67 *1:3 0
68 *1:12 0
*RES
81 *1:1 PADFRAME:EN_CP_pll 1.8169642857142856
82 *1:2 *1:3 0.7143999999999999
83 *1:4 *1:5 246.35833333333335
84 *1:6 *1:7 0.34780000000000005
85 *1:6 *1:8 1.6544
86 *1:9 *1:8 0.34780000000000005
87 *1:10 *1:9 0.0376
88 *1:11 *1:12 1.9821428571428572
89 *1:13 *1:7 231.61600000000004
90 *1:13 *1:4 0
91 *1:1 *1:2 0
92 *1:3 *1:5 0
93 *1:12 *1:10 0
*END

*D_NET *2 0.21397491982713998
*CONN
*I PLL:ENb_VCO I
*I PADFRAME:EN_VCO_pll O
*CAP
69 *2:1 0.000333076932
70 *2:3 0.00021230741798000002
71 *2:4 0.08548031503707999
72 *2:6 0.00035640377368000004
73 *2:8 0.1275928166664
74 *2:2 0
75 *2:7 0
*RES
94 *2:1 *2:2 0.5640000000000001
95 *2:3 PADFRAME:EN_VCO_pll 2.3124999999999996
96 *2:4 *2:5 176.45053333333334
97 *2:6 *2:7 3.9642857142857144
98 *2:8 *2:9 233.23280000000003
99 *2:8 *2:4 0
100 *2:2 *2:5 0
101 *2:3 *2:1 0
102 *2:7 *2:9 0
*END

*D_NET *3 0.11182848572238
*CONN
*I POR:porb_h O
*I PADFRAME:PORB I
*CAP
76 *3:1 0.00335522315121
77 *3:3 0.0009062445865600001
78 *3:5 0.03263398745048
79 *3:7 2.4982155570000003e-05
80 *3:9 0.07490804837856
81 *3:4 0
82 *3:10 0
*RES
103 *3:1 POR:porb_h 1.714285714285714
104 *3:1 *3:2 36.50446428571428
105 *3:3 *3:4 9.428571428571429
106 *3:5 *3:6 373.96428571428567
107 *3:7 *3:8 0.16517857142857142
108 *3:9 *3:10 789.1160714285713
109 *3:4 *3:2 0
110 *3:3 *3:5 0
111 *3:9 *3:6 0
112 *3:10 *3:8 0
*END

*D_NET *4 0.2839816469228201
*CONN
*I PLL:REF I
*I PADFRAME:REF_CLK_pll O
*CAP
83 *4:1 0.0006621848156799999
84 *4:3 0.005342137680900001
85 *4:5 0.00119098098592
86 *4:7 2.4982155570000003e-05
87 PADFRAME:REF_CLK_pll 0.00016855238159999998
88 *4:10 0.0011345240944600002
89 *4:12 0.014074376836319999
90 *4:14 0.0012723342428800001
91 *4:16 0.00525567986748
92 *4:18 0.0012316576144
93 *4:20 0.03597702290272
94 *4:22 0.0024519564688
95 *4:24 0.015169509139639999
96 *4:26 0.04200025057098
97 *4:28 0.0007032571704
98 *4:30 0.0024519564688
99 *4:32 0.10271984567200002
100 *4:34 0.0016820902461200003
101 *4:36 0.0018824836700799999
102 *4:38 0.00245399350144
103 *4:40 0.00229202571591
104 *4:43 0.0011201144588900002
105 *4:44 0.009163600168
106 *4:46 0.0018011304131200002
107 *4:48 0.03175499968071
108 *4:2 0
109 *4:6 0
110 *4:8 0
111 *4:33 0
112 *4:15 0
113 *4:19 0
114 *4:23 0
115 *4:47 0
116 *4:31 0
117 *4:45 0
118 *4:39 0
*RES
113 *4:1 *4:2 6.857142857142856
114 *4:3 *4:4 61.11607142857142
115 *4:5 *4:6 12.428571428571427
116 *4:7 *4:8 0.16517857142857142
117 PADFRAME:REF_CLK_pll *4:9 0.26320000000000005
118 *4:10 *4:11 12.88392857142857
119 *4:12 *4:13 161.2142857142857
120 *4:14 *4:15 13.285714285714285
121 *4:16 *4:17 60.125
122 *4:18 *4:19 12.857142857142856
123 *4:20 *4:21 412.2857142857142
124 *4:22 *4:23 25.71428571428571
125 *4:24 *4:25 173.76785714285714
126 *4:26 *4:27 481.3303571428571
127 *4:28 *4:29 1.2408000000000001
128 *4:30 *4:31 25.71428571428571
129 *4:32 *4:33 1082.142857142857
130 *4:34 *4:35 19.160714285714285
131 *4:36 *4:37 19.71428571428571
132 *4:38 *4:37 0.33035714285714285
133 *4:38 *4:39 25.285714285714285
134 *4:40 *4:41 25.60267857142857
135 *4:40 *4:42 0.4285714285714285
136 *4:43 *4:42 12.718749999999998
137 *4:44 *4:45 96.42857142857142
138 *4:46 *4:47 18.857142857142858
139 *4:48 *4:49 363.88839285714283
140 *4:1 *4:12 0
141 *4:2 *4:4 0
142 *4:30 *4:3 0
143 *4:5 *4:16 0
144 *4:6 *4:13 0
145 *4:32 *4:7 0
146 *4:8 *4:9 0
147 *4:33 *4:11 0
148 *4:44 *4:10 0
149 *4:14 *4:20 0
150 *4:15 *4:17 0
151 *4:18 *4:24 0
152 *4:19 *4:21 0
153 *4:22 *4:26 0
154 *4:23 *4:25 0
155 *4:47 *4:27 0
156 *4:48 *4:28 0
157 *4:31 *4:49 0
158 *4:45 *4:35 0
159 *4:36 *4:34 0
160 *4:39 *4:41 0
161 *4:46 *4:43 0
*END

*D_NET *5 0.15622793019213999
*CONN
*I PLL:VCO_IN I
*I PADFRAME:VCO_IN_pll O
*CAP
119 *5:1 0.00398763193732
120 *5:3 0.0049739074345600005
121 *5:5 0.00146594571257
122 *5:7 0.006177896543960001
123 *5:9 0.00481120092064
124 *5:11 0.11305170930592001
125 *5:13 0.00502512569836
126 *5:15 0.0073738285148799996
127 *5:17 0.0033103790655300003
128 PADFRAME:VCO_IN_pll 0.006050305058399999
129 *5:10 0
130 *5:4 0
131 *5:6 0
132 *5:12 0
133 *5:16 0
*RES
162 *5:1 *5:2 45.589285714285715
163 *5:3 *5:4 52.285714285714285
164 *5:5 *5:6 16.68303571428571
165 *5:7 *5:8 70.69642857142857
166 *5:9 *5:10 50.57142857142857
167 *5:11 *5:12 1191.0
168 *5:13 *5:14 57.48214285714285
169 *5:15 *5:16 77.57142857142856
170 *5:17 *5:18 37.825892857142854
171 PADFRAME:VCO_IN_pll *5:19 11.016799999999998
172 *5:10 *5:1 0
173 *5:3 *5:2 0
174 *5:4 *5:7 0
175 *5:11 *5:5 0
176 *5:6 *5:19 0
177 *5:15 *5:8 0
178 *5:9 *5:14 0
179 *5:12 *5:13 0
180 *5:16 *5:17 0
*END

